@<TRIPOS>MOLECULE
HOH
    3     2     1     0     0
SMALL
bcc


@<TRIPOS>ATOM
      1 H            9.6260     6.7870    12.6730 ho         1 HOH       0.392500
      2 H1           9.6260     8.4200    12.6730 ho         1 HOH       0.392500
      3 O           10.2030     7.6040    12.6730 oh         1 HOH      -0.785000
@<TRIPOS>BOND
     1     1     3 1   
     2     2     3 1   
@<TRIPOS>SUBSTRUCTURE
     1 WAT         1 TEMP              0 ****  ****    0 ROOT
