@<TRIPOS>MOLECULE
URE
    8     7     1     0     0
SMALL
bcc


@<TRIPOS>ATOM
      1 C1           0.0000     2.7890     1.5370 c          1 URE       0.726100
      2 O1           0.0000     2.7890     2.7950 o          1 URE      -0.639100
      3 N1           0.8090     3.5980     0.8360 n          1 URE      -0.641500
      4 H1           1.4260     4.2150     1.3310 hn         1 URE       0.299000
      5 H2           0.7980     3.5870    -0.1630 hn         1 URE       0.299000
      6 N1A         -0.8090     1.9800     0.8360 n          1 URE      -0.641500
      7 H1A         -1.4260     1.3630     1.3310 hn         1 URE       0.299000
      8 H2A         -0.7980     1.9910    -0.1630 hn         1 URE       0.299000
@<TRIPOS>BOND
     1     1     2 2   
     2     1     3 1   
     3     1     6 1   
     4     3     4 1   
     5     3     5 1   
     6     6     7 1   
     7     6     8 1   
@<TRIPOS>SUBSTRUCTURE
     1 URE         1 TEMP              0 ****  ****    0 ROOT
